<?xml version="1.0" encoding="UTF-8"?>

<!-- generated on 02/16/21 09:35:07 by Eclipse SUMO netedit Version 1.7.0
<configuration xmlns:xsi="http://www.w3.org/2001/XMLSchema-instance" xsi:noNamespaceSchemaLocation="http://sumo.dlr.de/xsd/netconvertConfiguration.xsd">

    <input>
        <sumo-net-file value="C:\Users\kusic\Desktop\KK\SUMO\WL_analysis\reward_freeSpeed_or_TTS\DWL_movingVSL_color\model_1\my_net_15_2_2021.net.xml"/>
    </input>

    <output>
        <output-file value="C:\Users\kusic\Desktop\KK\SUMO\WL_analysis\reward_freeSpeed_or_TTS\DWL_movingVSL_color\model_1\my_net_15_2_2021.net.xml"/>
    </output>

    <processing>
        <geometry.min-radius.fix.railways value="false"/>
        <geometry.max-grade.fix value="false"/>
        <offset.disable-normalization value="true"/>
        <lefthand value="false"/>
    </processing>

    <junctions>
        <no-turnarounds value="true"/>
        <junctions.corner-detail value="5"/>
        <junctions.limit-turn-speed value="5.5"/>
        <rectangular-lane-cut value="false"/>
    </junctions>

    <pedestrian>
        <walkingareas value="false"/>
    </pedestrian>

    <report>
        <aggregate-warnings value="5"/>
    </report>

</configuration>
-->

<net version="1.6" junctionCornerDetail="5" limitTurnSpeed="5.50" xmlns:xsi="http://www.w3.org/2001/XMLSchema-instance" xsi:noNamespaceSchemaLocation="http://sumo.dlr.de/xsd/net_file.xsd">

    <location netOffset="0.00,300.00" convBoundary="0.00,0.00,8000.00,300.00" origBoundary="0.00,-300.00,8000.00,0.00" projParameter="!"/>

    <type id="1L16" priority="1" numLanes="1" speed="16.00"/>
    <type id="2L36" priority="2" numLanes="2" speed="36.00"/>
    <type id="3L36" priority="2" numLanes="2" speed="36.00"/>

    <edge id=":11to12-AddedOnRampNode_0" function="internal">
        <lane id=":11to12-AddedOnRampNode_0_0" index="0" speed="34.66" length="20.11" shape="5540.00,292.00 5545.99,292.50 5550.05,293.60 5554.08,294.70 5560.00,295.20"/>
        <lane id=":11to12-AddedOnRampNode_0_1" index="1" speed="33.33" length="20.11" shape="5540.00,295.20 5560.00,295.20"/>
        <lane id=":11to12-AddedOnRampNode_0_2" index="2" speed="33.33" length="20.11" shape="5540.00,298.40 5560.00,298.40"/>
    </edge>
    <edge id=":4to5-AddedOnRampNode_0" function="internal">
        <lane id=":4to5-AddedOnRampNode_0_0" index="0" speed="34.66" length="8.27" shape="2546.00,292.00 2548.46,292.50 2550.00,293.60 2551.54,294.70 2554.00,295.20"/>
        <lane id=":4to5-AddedOnRampNode_0_1" index="1" speed="33.33" length="8.27" shape="2546.00,295.20 2554.00,295.20"/>
        <lane id=":4to5-AddedOnRampNode_0_2" index="2" speed="33.33" length="8.27" shape="2546.00,298.40 2554.00,298.40"/>
    </edge>
    <edge id=":7to8-AddedOffRampNode_0" function="internal">
        <lane id=":7to8-AddedOffRampNode_0_0" index="0" speed="34.66" length="8.27" shape="3446.00,295.20 3448.46,294.70 3450.00,293.60 3451.54,292.50 3454.00,292.00"/>
        <lane id=":7to8-AddedOffRampNode_0_1" index="1" speed="33.33" length="8.27" shape="3446.00,295.20 3454.00,295.20"/>
        <lane id=":7to8-AddedOffRampNode_0_2" index="2" speed="33.33" length="8.27" shape="3446.00,298.40 3454.00,298.40"/>
    </edge>
    <edge id=":gneJ10_0" function="internal">
        <lane id=":gneJ10_0_0" index="0" speed="33.33" length="0.10" shape="3300.00,295.20 3300.00,295.20"/>
        <lane id=":gneJ10_0_1" index="1" speed="33.33" length="0.10" shape="3300.00,298.40 3300.00,298.40"/>
    </edge>
    <edge id=":gneJ100_0" function="internal">
        <lane id=":gneJ100_0_0" index="0" speed="33.33" length="0.10" shape="3050.02,295.20 3050.02,295.20"/>
        <lane id=":gneJ100_0_1" index="1" speed="33.33" length="0.10" shape="3050.02,298.40 3050.02,298.40"/>
    </edge>
    <edge id=":gneJ101_0" function="internal">
        <lane id=":gneJ101_0_0" index="0" speed="33.33" length="0.10" shape="3145.55,295.20 3145.55,295.20"/>
        <lane id=":gneJ101_0_1" index="1" speed="33.33" length="0.10" shape="3145.55,298.40 3145.55,298.40"/>
    </edge>
    <edge id=":gneJ102_0" function="internal">
        <lane id=":gneJ102_0_0" index="0" speed="33.33" length="0.10" shape="3248.07,295.20 3248.07,295.20"/>
        <lane id=":gneJ102_0_1" index="1" speed="33.33" length="0.10" shape="3248.07,298.40 3248.07,298.40"/>
    </edge>
    <edge id=":gneJ103_0" function="internal">
        <lane id=":gneJ103_0_0" index="0" speed="33.33" length="0.10" shape="3348.26,295.20 3348.26,295.20"/>
        <lane id=":gneJ103_0_1" index="1" speed="33.33" length="0.10" shape="3348.26,298.40 3348.26,298.40"/>
    </edge>
    <edge id=":gneJ104_0" function="internal">
        <lane id=":gneJ104_0_0" index="0" speed="36.00" length="0.10" shape="3545.91,292.00 3545.91,292.00"/>
        <lane id=":gneJ104_0_1" index="1" speed="33.33" length="0.10" shape="3545.91,295.20 3545.91,295.20"/>
        <lane id=":gneJ104_0_2" index="2" speed="33.33" length="0.10" shape="3545.91,298.40 3545.91,298.40"/>
    </edge>
    <edge id=":gneJ105_0" function="internal">
        <lane id=":gneJ105_0_0" index="0" speed="36.00" length="0.10" shape="3647.65,292.00 3647.65,292.00"/>
        <lane id=":gneJ105_0_1" index="1" speed="33.33" length="0.10" shape="3647.65,295.20 3647.65,295.20"/>
        <lane id=":gneJ105_0_2" index="2" speed="33.33" length="0.10" shape="3647.65,298.40 3647.65,298.40"/>
    </edge>
    <edge id=":gneJ106_0" function="internal">
        <lane id=":gneJ106_0_0" index="0" speed="33.33" length="0.10" shape="3749.01,295.20 3749.01,295.20"/>
        <lane id=":gneJ106_0_1" index="1" speed="33.33" length="0.10" shape="3749.01,298.40 3749.01,298.40"/>
    </edge>
    <edge id=":gneJ107_0" function="internal">
        <lane id=":gneJ107_0_0" index="0" speed="33.33" length="0.10" shape="3846.86,295.20 3846.86,295.20"/>
        <lane id=":gneJ107_0_1" index="1" speed="33.33" length="0.10" shape="3846.86,298.40 3846.86,298.40"/>
    </edge>
    <edge id=":gneJ108_0" function="internal">
        <lane id=":gneJ108_0_0" index="0" speed="33.33" length="0.10" shape="3948.99,295.20 3948.99,295.20"/>
        <lane id=":gneJ108_0_1" index="1" speed="33.33" length="0.10" shape="3948.99,298.40 3948.99,298.40"/>
    </edge>
    <edge id=":gneJ109_0" function="internal">
        <lane id=":gneJ109_0_0" index="0" speed="33.33" length="0.10" shape="4047.24,295.20 4047.24,295.20"/>
        <lane id=":gneJ109_0_1" index="1" speed="33.33" length="0.10" shape="4047.24,298.40 4047.24,298.40"/>
    </edge>
    <edge id=":gneJ11_0" function="internal">
        <lane id=":gneJ11_0_0" index="0" speed="36.00" length="0.10" shape="3600.00,292.00 3600.00,292.00"/>
        <lane id=":gneJ11_0_1" index="1" speed="33.33" length="0.10" shape="3600.00,295.20 3600.00,295.20"/>
        <lane id=":gneJ11_0_2" index="2" speed="33.33" length="0.10" shape="3600.00,298.40 3600.00,298.40"/>
    </edge>
    <edge id=":gneJ110_0" function="internal">
        <lane id=":gneJ110_0_0" index="0" speed="33.33" length="0.10" shape="4149.37,295.20 4149.37,295.20"/>
        <lane id=":gneJ110_0_1" index="1" speed="33.33" length="0.10" shape="4149.37,298.40 4149.37,298.40"/>
    </edge>
    <edge id=":gneJ111_0" function="internal">
        <lane id=":gneJ111_0_0" index="0" speed="33.33" length="0.10" shape="4248.00,295.20 4248.00,295.20"/>
        <lane id=":gneJ111_0_1" index="1" speed="33.33" length="0.10" shape="4248.00,298.40 4248.00,298.40"/>
    </edge>
    <edge id=":gneJ112_0" function="internal">
        <lane id=":gneJ112_0_0" index="0" speed="33.33" length="0.10" shape="4348.58,295.20 4348.58,295.20"/>
        <lane id=":gneJ112_0_1" index="1" speed="33.33" length="0.10" shape="4348.58,298.40 4348.58,298.40"/>
    </edge>
    <edge id=":gneJ113_0" function="internal">
        <lane id=":gneJ113_0_0" index="0" speed="33.33" length="0.10" shape="4447.21,295.20 4447.21,295.20"/>
        <lane id=":gneJ113_0_1" index="1" speed="33.33" length="0.10" shape="4447.21,298.40 4447.21,298.40"/>
    </edge>
    <edge id=":gneJ114_0" function="internal">
        <lane id=":gneJ114_0_0" index="0" speed="33.33" length="0.10" shape="4547.40,295.20 4547.40,295.20"/>
        <lane id=":gneJ114_0_1" index="1" speed="33.33" length="0.10" shape="4547.40,298.40 4547.40,298.40"/>
    </edge>
    <edge id=":gneJ115_0" function="internal">
        <lane id=":gneJ115_0_0" index="0" speed="33.33" length="0.10" shape="4646.03,295.20 4646.03,295.20"/>
        <lane id=":gneJ115_0_1" index="1" speed="33.33" length="0.10" shape="4646.03,298.40 4646.03,298.40"/>
    </edge>
    <edge id=":gneJ116_0" function="internal">
        <lane id=":gneJ116_0_0" index="0" speed="33.33" length="0.10" shape="4746.61,295.20 4746.61,295.20"/>
        <lane id=":gneJ116_0_1" index="1" speed="33.33" length="0.10" shape="4746.61,298.40 4746.61,298.40"/>
    </edge>
    <edge id=":gneJ117_0" function="internal">
        <lane id=":gneJ117_0_0" index="0" speed="33.33" length="0.10" shape="4846.41,295.20 4846.41,295.20"/>
        <lane id=":gneJ117_0_1" index="1" speed="33.33" length="0.10" shape="4846.41,298.40 4846.41,298.40"/>
    </edge>
    <edge id=":gneJ118_0" function="internal">
        <lane id=":gneJ118_0_0" index="0" speed="33.33" length="0.10" shape="4948.15,295.20 4948.15,295.20"/>
        <lane id=":gneJ118_0_1" index="1" speed="33.33" length="0.10" shape="4948.15,298.40 4948.15,298.40"/>
    </edge>
    <edge id=":gneJ119_0" function="internal">
        <lane id=":gneJ119_0_0" index="0" speed="33.33" length="0.10" shape="5046.00,295.20 5046.00,295.20"/>
        <lane id=":gneJ119_0_1" index="1" speed="33.33" length="0.10" shape="5046.00,298.40 5046.00,298.40"/>
    </edge>
    <edge id=":gneJ12_0" function="internal">
        <lane id=":gneJ12_0_0" index="0" speed="33.33" length="0.10" shape="3800.00,295.20 3800.00,295.20"/>
        <lane id=":gneJ12_0_1" index="1" speed="33.33" length="0.10" shape="3800.00,298.40 3800.00,298.40"/>
    </edge>
    <edge id=":gneJ120_0" function="internal">
        <lane id=":gneJ120_0_0" index="0" speed="33.33" length="0.10" shape="5146.97,295.20 5146.97,295.20"/>
        <lane id=":gneJ120_0_1" index="1" speed="33.33" length="0.10" shape="5146.97,298.40 5146.97,298.40"/>
    </edge>
    <edge id=":gneJ121_0" function="internal">
        <lane id=":gneJ121_0_0" index="0" speed="33.33" length="0.10" shape="5246.77,295.20 5246.77,295.20"/>
        <lane id=":gneJ121_0_1" index="1" speed="33.33" length="0.10" shape="5246.77,298.40 5246.77,298.40"/>
    </edge>
    <edge id=":gneJ122_0" function="internal">
        <lane id=":gneJ122_0_0" index="0" speed="36.00" length="3.00" shape="5448.31,292.00 5451.31,292.00"/>
        <lane id=":gneJ122_0_1" index="1" speed="33.33" length="3.00" shape="5448.31,295.20 5451.31,295.20"/>
        <lane id=":gneJ122_0_2" index="2" speed="33.33" length="3.00" shape="5448.31,298.40 5451.31,298.40"/>
    </edge>
    <edge id=":gneJ123_0" function="internal">
        <lane id=":gneJ123_0_0" index="0" speed="33.33" length="3.00" shape="5649.85,295.20 5652.85,295.20"/>
        <lane id=":gneJ123_0_1" index="1" speed="33.33" length="3.00" shape="5649.85,298.40 5652.85,298.40"/>
    </edge>
    <edge id=":gneJ124_0" function="internal">
        <lane id=":gneJ124_0_0" index="0" speed="33.33" length="0.10" shape="5746.93,295.20 5746.93,295.20"/>
        <lane id=":gneJ124_0_1" index="1" speed="33.33" length="0.10" shape="5746.93,298.40 5746.93,298.40"/>
    </edge>
    <edge id=":gneJ125_0" function="internal">
        <lane id=":gneJ125_0_0" index="0" speed="33.33" length="0.10" shape="5848.28,295.20 5848.28,295.20"/>
        <lane id=":gneJ125_0_1" index="1" speed="33.33" length="0.10" shape="5848.28,298.40 5848.28,298.40"/>
    </edge>
    <edge id=":gneJ126_0" function="internal">
        <lane id=":gneJ126_0_0" index="0" speed="33.33" length="0.10" shape="5947.69,295.20 5947.69,295.20"/>
        <lane id=":gneJ126_0_1" index="1" speed="33.33" length="0.10" shape="5947.69,298.40 5947.69,298.40"/>
    </edge>
    <edge id=":gneJ127_0" function="internal">
        <lane id=":gneJ127_0_0" index="0" speed="33.33" length="0.10" shape="6048.26,295.20 6048.26,295.20"/>
        <lane id=":gneJ127_0_1" index="1" speed="33.33" length="0.10" shape="6048.26,298.40 6048.26,298.40"/>
    </edge>
    <edge id=":gneJ128_0" function="internal">
        <lane id=":gneJ128_0_0" index="0" speed="33.33" length="0.10" shape="6147.29,295.20 6147.29,295.20"/>
        <lane id=":gneJ128_0_1" index="1" speed="33.33" length="0.10" shape="6147.29,298.40 6147.29,298.40"/>
    </edge>
    <edge id=":gneJ129_0" function="internal">
        <lane id=":gneJ129_0_0" index="0" speed="33.33" length="0.10" shape="6249.03,295.20 6249.03,295.20"/>
        <lane id=":gneJ129_0_1" index="1" speed="33.33" length="0.10" shape="6249.03,298.40 6249.03,298.40"/>
    </edge>
    <edge id=":gneJ13_0" function="internal">
        <lane id=":gneJ13_0_0" index="0" speed="33.33" length="0.10" shape="3900.00,295.20 3900.00,295.20"/>
        <lane id=":gneJ13_0_1" index="1" speed="33.33" length="0.10" shape="3900.00,298.40 3900.00,298.40"/>
    </edge>
    <edge id=":gneJ130_0" function="internal">
        <lane id=":gneJ130_0_0" index="0" speed="33.33" length="0.10" shape="6346.88,295.20 6346.88,295.20"/>
        <lane id=":gneJ130_0_1" index="1" speed="33.33" length="0.10" shape="6346.88,298.40 6346.88,298.40"/>
    </edge>
    <edge id=":gneJ131_0" function="internal">
        <lane id=":gneJ131_0_0" index="0" speed="33.33" length="0.10" shape="6448.62,295.20 6448.62,295.20"/>
        <lane id=":gneJ131_0_1" index="1" speed="33.33" length="0.10" shape="6448.62,298.40 6448.62,298.40"/>
    </edge>
    <edge id=":gneJ132_0" function="internal">
        <lane id=":gneJ132_0_0" index="0" speed="33.33" length="0.10" shape="6546.48,295.20 6546.48,295.20"/>
        <lane id=":gneJ132_0_1" index="1" speed="33.33" length="0.10" shape="6546.48,298.40 6546.48,298.40"/>
    </edge>
    <edge id=":gneJ133_0" function="internal">
        <lane id=":gneJ133_0_0" index="0" speed="33.33" length="0.10" shape="6647.45,295.20 6647.45,295.20"/>
        <lane id=":gneJ133_0_1" index="1" speed="33.33" length="0.10" shape="6647.45,298.40 6647.45,298.40"/>
    </edge>
    <edge id=":gneJ134_0" function="internal">
        <lane id=":gneJ134_0_0" index="0" speed="33.33" length="0.10" shape="6746.86,295.20 6746.86,295.20"/>
        <lane id=":gneJ134_0_1" index="1" speed="33.33" length="0.10" shape="6746.86,298.40 6746.86,298.40"/>
    </edge>
    <edge id=":gneJ135_0" function="internal">
        <lane id=":gneJ135_0_0" index="0" speed="33.33" length="0.10" shape="6847.82,295.20 6847.82,295.20"/>
        <lane id=":gneJ135_0_1" index="1" speed="33.33" length="0.10" shape="6847.82,298.40 6847.82,298.40"/>
    </edge>
    <edge id=":gneJ136_0" function="internal">
        <lane id=":gneJ136_0_0" index="0" speed="33.33" length="3.00" shape="6945.68,295.20 6948.68,295.20"/>
        <lane id=":gneJ136_0_1" index="1" speed="33.33" length="3.00" shape="6945.68,298.40 6948.68,298.40"/>
    </edge>
    <edge id=":gneJ137_0" function="internal">
        <lane id=":gneJ137_0_0" index="0" speed="33.33" length="0.10" shape="7048.20,295.20 7048.20,295.20"/>
        <lane id=":gneJ137_0_1" index="1" speed="33.33" length="0.10" shape="7048.20,298.40 7048.20,298.40"/>
    </edge>
    <edge id=":gneJ138_0" function="internal">
        <lane id=":gneJ138_0_0" index="0" speed="33.33" length="0.10" shape="7147.99,295.20 7147.99,295.20"/>
        <lane id=":gneJ138_0_1" index="1" speed="33.33" length="0.10" shape="7147.99,298.40 7147.99,298.40"/>
    </edge>
    <edge id=":gneJ139_0" function="internal">
        <lane id=":gneJ139_0_0" index="0" speed="33.33" length="0.10" shape="7248.57,295.20 7248.57,295.20"/>
        <lane id=":gneJ139_0_1" index="1" speed="33.33" length="0.10" shape="7248.57,298.40 7248.57,298.40"/>
    </edge>
    <edge id=":gneJ14_0" function="internal">
        <lane id=":gneJ14_0_0" index="0" speed="33.33" length="0.10" shape="4100.00,295.20 4100.00,295.20"/>
        <lane id=":gneJ14_0_1" index="1" speed="33.33" length="0.10" shape="4100.00,298.40 4100.00,298.40"/>
    </edge>
    <edge id=":gneJ140_0" function="internal">
        <lane id=":gneJ140_0_0" index="0" speed="33.33" length="0.10" shape="7348.37,295.20 7348.37,295.20"/>
        <lane id=":gneJ140_0_1" index="1" speed="33.33" length="0.10" shape="7348.37,298.40 7348.37,298.40"/>
    </edge>
    <edge id=":gneJ141_0" function="internal">
        <lane id=":gneJ141_0_0" index="0" speed="33.33" length="0.10" shape="7449.72,295.20 7449.72,295.20"/>
        <lane id=":gneJ141_0_1" index="1" speed="33.33" length="0.10" shape="7449.72,298.40 7449.72,298.40"/>
    </edge>
    <edge id=":gneJ142_0" function="internal">
        <lane id=":gneJ142_0_0" index="0" speed="33.33" length="3.00" shape="7546.91,295.20 7549.91,295.20"/>
        <lane id=":gneJ142_0_1" index="1" speed="33.33" length="3.00" shape="7546.91,298.40 7549.91,298.40"/>
    </edge>
    <edge id=":gneJ143_0" function="internal">
        <lane id=":gneJ143_0_0" index="0" speed="33.33" length="0.10" shape="7647.38,295.20 7647.38,295.20"/>
        <lane id=":gneJ143_0_1" index="1" speed="33.33" length="0.10" shape="7647.38,298.40 7647.38,298.40"/>
    </edge>
    <edge id=":gneJ144_0" function="internal">
        <lane id=":gneJ144_0_0" index="0" speed="33.33" length="0.10" shape="7749.12,295.20 7749.12,295.20"/>
        <lane id=":gneJ144_0_1" index="1" speed="33.33" length="0.10" shape="7749.12,298.40 7749.12,298.40"/>
    </edge>
    <edge id=":gneJ145_0" function="internal">
        <lane id=":gneJ145_0_0" index="0" speed="33.33" length="0.10" shape="7847.36,295.20 7847.36,295.20"/>
        <lane id=":gneJ145_0_1" index="1" speed="33.33" length="0.10" shape="7847.36,298.40 7847.36,298.40"/>
    </edge>
    <edge id=":gneJ146_0" function="internal">
        <lane id=":gneJ146_0_0" index="0" speed="33.33" length="0.10" shape="7948.33,295.20 7948.33,295.20"/>
        <lane id=":gneJ146_0_1" index="1" speed="33.33" length="0.10" shape="7948.33,298.40 7948.33,298.40"/>
    </edge>
    <edge id=":gneJ15_0" function="internal">
        <lane id=":gneJ15_0_0" index="0" speed="33.33" length="0.10" shape="4200.00,295.20 4200.00,295.20"/>
        <lane id=":gneJ15_0_1" index="1" speed="33.33" length="0.10" shape="4200.00,298.40 4200.00,298.40"/>
    </edge>
    <edge id=":gneJ16_0" function="internal">
        <lane id=":gneJ16_0_0" index="0" speed="33.33" length="0.10" shape="4300.00,295.20 4300.00,295.20"/>
        <lane id=":gneJ16_0_1" index="1" speed="33.33" length="0.10" shape="4300.00,298.40 4300.00,298.40"/>
    </edge>
    <edge id=":gneJ17_0" function="internal">
        <lane id=":gneJ17_0_0" index="0" speed="33.33" length="0.10" shape="4400.00,295.20 4400.00,295.20"/>
        <lane id=":gneJ17_0_1" index="1" speed="33.33" length="0.10" shape="4400.00,298.40 4400.00,298.40"/>
    </edge>
    <edge id=":gneJ18_0" function="internal">
        <lane id=":gneJ18_0_0" index="0" speed="33.33" length="3.00" shape="4597.00,295.20 4600.00,295.20"/>
        <lane id=":gneJ18_0_1" index="1" speed="33.33" length="3.00" shape="4597.00,298.40 4600.00,298.40"/>
    </edge>
    <edge id=":gneJ19_0" function="internal">
        <lane id=":gneJ19_0_0" index="0" speed="33.33" length="0.10" shape="4700.00,295.20 4700.00,295.20"/>
        <lane id=":gneJ19_0_1" index="1" speed="33.33" length="0.10" shape="4700.00,298.40 4700.00,298.40"/>
    </edge>
    <edge id=":gneJ20_0" function="internal">
        <lane id=":gneJ20_0_0" index="0" speed="33.33" length="0.10" shape="4800.00,295.20 4800.00,295.20"/>
        <lane id=":gneJ20_0_1" index="1" speed="33.33" length="0.10" shape="4800.00,298.40 4800.00,298.40"/>
    </edge>
    <edge id=":gneJ21_0" function="internal">
        <lane id=":gneJ21_0_0" index="0" speed="33.33" length="0.10" shape="4900.00,295.20 4900.00,295.20"/>
        <lane id=":gneJ21_0_1" index="1" speed="33.33" length="0.10" shape="4900.00,298.40 4900.00,298.40"/>
    </edge>
    <edge id=":gneJ22_0" function="internal">
        <lane id=":gneJ22_0_0" index="0" speed="33.33" length="0.10" shape="2900.51,295.20 2900.51,295.20"/>
        <lane id=":gneJ22_0_1" index="1" speed="33.33" length="0.10" shape="2900.51,298.40 2900.51,298.40"/>
    </edge>
    <edge id=":gneJ23_0" function="internal">
        <lane id=":gneJ23_0_0" index="0" speed="33.33" length="0.10" shape="2800.25,295.20 2800.25,295.20"/>
        <lane id=":gneJ23_0_1" index="1" speed="33.33" length="0.10" shape="2800.25,298.40 2800.25,298.40"/>
    </edge>
    <edge id=":gneJ24_0" function="internal">
        <lane id=":gneJ24_0_0" index="0" speed="33.33" length="0.10" shape="2700.25,295.20 2700.25,295.20"/>
        <lane id=":gneJ24_0_1" index="1" speed="33.33" length="0.10" shape="2700.25,298.40 2700.25,298.40"/>
    </edge>
    <edge id=":gneJ25_0" function="internal">
        <lane id=":gneJ25_0_0" index="0" speed="36.00" length="0.10" shape="2400.00,292.00 2400.00,292.00"/>
        <lane id=":gneJ25_0_1" index="1" speed="33.33" length="0.10" shape="2400.00,295.20 2400.00,295.20"/>
        <lane id=":gneJ25_0_2" index="2" speed="33.33" length="0.10" shape="2400.00,298.40 2400.00,298.40"/>
    </edge>
    <edge id=":gneJ26_0" function="internal">
        <lane id=":gneJ26_0_0" index="0" speed="33.33" length="0.10" shape="2200.38,295.20 2200.38,295.20"/>
        <lane id=":gneJ26_0_1" index="1" speed="33.33" length="0.10" shape="2200.38,298.40 2200.38,298.40"/>
    </edge>
    <edge id=":gneJ27_0" function="internal">
        <lane id=":gneJ27_0_0" index="0" speed="33.33" length="0.10" shape="2100.25,295.20 2100.25,295.20"/>
        <lane id=":gneJ27_0_1" index="1" speed="33.33" length="0.10" shape="2100.25,298.40 2100.25,298.40"/>
    </edge>
    <edge id=":gneJ28_0" function="internal">
        <lane id=":gneJ28_0_0" index="0" speed="33.33" length="0.10" shape="1900.64,295.20 1900.64,295.20"/>
        <lane id=":gneJ28_0_1" index="1" speed="33.33" length="0.10" shape="1900.64,298.40 1900.64,298.40"/>
    </edge>
    <edge id=":gneJ29_0" function="internal">
        <lane id=":gneJ29_0_0" index="0" speed="33.33" length="0.10" shape="1800.19,295.20 1800.19,295.20"/>
        <lane id=":gneJ29_0_1" index="1" speed="33.33" length="0.10" shape="1800.19,298.40 1800.19,298.40"/>
    </edge>
    <edge id=":gneJ30_0" function="internal">
        <lane id=":gneJ30_0_0" index="0" speed="33.33" length="0.10" shape="1700.38,295.20 1700.38,295.20"/>
        <lane id=":gneJ30_0_1" index="1" speed="33.33" length="0.10" shape="1700.38,298.40 1700.38,298.40"/>
    </edge>
    <edge id=":gneJ31_0" function="internal">
        <lane id=":gneJ31_0_0" index="0" speed="33.33" length="0.10" shape="1600.25,295.20 1600.25,295.20"/>
        <lane id=":gneJ31_0_1" index="1" speed="33.33" length="0.10" shape="1600.25,298.40 1600.25,298.40"/>
    </edge>
    <edge id=":gneJ32_0" function="internal">
        <lane id=":gneJ32_0_0" index="0" speed="33.33" length="0.10" shape="1500.12,295.20 1500.12,295.20"/>
        <lane id=":gneJ32_0_1" index="1" speed="33.33" length="0.10" shape="1500.12,298.40 1500.12,298.40"/>
    </edge>
    <edge id=":gneJ33_0" function="internal">
        <lane id=":gneJ33_0_0" index="0" speed="33.33" length="0.10" shape="1400.31,295.20 1400.31,295.20"/>
        <lane id=":gneJ33_0_1" index="1" speed="33.33" length="0.10" shape="1400.31,298.40 1400.31,298.40"/>
    </edge>
    <edge id=":gneJ34_0" function="internal">
        <lane id=":gneJ34_0_0" index="0" speed="33.33" length="3.00" shape="1297.18,295.20 1300.18,295.20"/>
        <lane id=":gneJ34_0_1" index="1" speed="33.33" length="3.00" shape="1297.18,298.40 1300.18,298.40"/>
    </edge>
    <edge id=":gneJ35_0" function="internal">
        <lane id=":gneJ35_0_0" index="0" speed="33.33" length="3.00" shape="1197.05,295.20 1200.05,295.20"/>
        <lane id=":gneJ35_0_1" index="1" speed="33.33" length="3.00" shape="1197.05,298.40 1200.05,298.40"/>
    </edge>
    <edge id=":gneJ36_0" function="internal">
        <lane id=":gneJ36_0_0" index="0" speed="33.33" length="3.00" shape="1097.24,295.20 1100.24,295.20"/>
        <lane id=":gneJ36_0_1" index="1" speed="33.33" length="3.00" shape="1097.24,298.40 1100.24,298.40"/>
    </edge>
    <edge id=":gneJ37_0" function="internal">
        <lane id=":gneJ37_0_0" index="0" speed="33.33" length="0.10" shape="899.98,295.20 899.98,295.20"/>
        <lane id=":gneJ37_0_1" index="1" speed="33.33" length="0.10" shape="899.98,298.40 899.98,298.40"/>
    </edge>
    <edge id=":gneJ38_0" function="internal">
        <lane id=":gneJ38_0_0" index="0" speed="33.33" length="0.10" shape="800.17,295.20 800.17,295.20"/>
        <lane id=":gneJ38_0_1" index="1" speed="33.33" length="0.10" shape="800.17,298.40 800.17,298.40"/>
    </edge>
    <edge id=":gneJ39_0" function="internal">
        <lane id=":gneJ39_0_0" index="0" speed="33.33" length="0.10" shape="700.05,295.20 700.05,295.20"/>
        <lane id=":gneJ39_0_1" index="1" speed="33.33" length="0.10" shape="700.05,298.40 700.05,298.40"/>
    </edge>
    <edge id=":gneJ4_0" function="internal">
        <lane id=":gneJ4_0_0" index="0" speed="36.00" length="3.00" shape="5349.06,291.98 5352.06,292.00"/>
        <lane id=":gneJ4_0_1" index="1" speed="33.33" length="3.00" shape="5349.06,295.20 5352.06,295.20"/>
        <lane id=":gneJ4_0_2" index="2" speed="33.33" length="3.00" shape="5349.06,298.40 5352.06,298.40"/>
    </edge>
    <edge id=":gneJ40_0" function="internal">
        <lane id=":gneJ40_0_0" index="0" speed="33.33" length="0.10" shape="599.59,295.20 599.59,295.20"/>
        <lane id=":gneJ40_0_1" index="1" speed="33.33" length="0.10" shape="599.59,298.40 599.59,298.40"/>
    </edge>
    <edge id=":gneJ41_0" function="internal">
        <lane id=":gneJ41_0_0" index="0" speed="33.33" length="0.10" shape="500.11,295.20 500.11,295.20"/>
        <lane id=":gneJ41_0_1" index="1" speed="33.33" length="0.10" shape="500.11,298.40 500.11,298.40"/>
    </edge>
    <edge id=":gneJ42_0" function="internal">
        <lane id=":gneJ42_0_0" index="0" speed="33.33" length="0.10" shape="399.98,295.20 399.98,295.20"/>
        <lane id=":gneJ42_0_1" index="1" speed="33.33" length="0.10" shape="399.98,298.40 399.98,298.40"/>
    </edge>
    <edge id=":gneJ43_0" function="internal">
        <lane id=":gneJ43_0_0" index="0" speed="33.33" length="0.10" shape="299.85,295.20 299.85,295.20"/>
        <lane id=":gneJ43_0_1" index="1" speed="33.33" length="0.10" shape="299.85,298.40 299.85,298.40"/>
    </edge>
    <edge id=":gneJ44_0" function="internal">
        <lane id=":gneJ44_0_0" index="0" speed="33.33" length="0.10" shape="201.32,295.20 201.32,295.20"/>
        <lane id=":gneJ44_0_1" index="1" speed="33.33" length="0.10" shape="201.32,298.40 201.32,298.40"/>
    </edge>
    <edge id=":gneJ45_0" function="internal">
        <lane id=":gneJ45_0_0" index="0" speed="33.33" length="0.10" shape="99.27,295.20 99.27,295.20"/>
        <lane id=":gneJ45_0_1" index="1" speed="33.33" length="0.10" shape="99.27,298.40 99.27,298.40"/>
    </edge>
    <edge id=":gneJ46_0" function="internal">
        <lane id=":gneJ46_0_0" index="0" speed="33.33" length="0.10" shape="5099.55,295.20 5099.55,295.20"/>
        <lane id=":gneJ46_0_1" index="1" speed="33.33" length="0.10" shape="5099.55,298.40 5099.55,298.40"/>
    </edge>
    <edge id=":gneJ47_0" function="internal">
        <lane id=":gneJ47_0_0" index="0" speed="33.33" length="0.10" shape="5200.52,295.20 5200.52,295.20"/>
        <lane id=":gneJ47_0_1" index="1" speed="33.33" length="0.10" shape="5200.52,298.40 5200.52,298.40"/>
    </edge>
    <edge id=":gneJ48_0" function="internal">
        <lane id=":gneJ48_0_0" index="0" speed="36.00" length="0.10" shape="5400.89,292.00 5400.89,292.00"/>
        <lane id=":gneJ48_0_1" index="1" speed="33.33" length="0.10" shape="5400.89,295.20 5400.89,295.20"/>
        <lane id=":gneJ48_0_2" index="2" speed="33.33" length="0.10" shape="5400.89,298.40 5400.89,298.40"/>
    </edge>
    <edge id=":gneJ49_0" function="internal">
        <lane id=":gneJ49_0_0" index="0" speed="36.00" length="0.10" shape="5500.69,292.00 5500.69,292.00"/>
        <lane id=":gneJ49_0_1" index="1" speed="33.33" length="0.10" shape="5500.69,295.20 5500.69,295.20"/>
        <lane id=":gneJ49_0_2" index="2" speed="33.33" length="0.10" shape="5500.69,298.40 5500.69,298.40"/>
    </edge>
    <edge id=":gneJ5_0" function="internal">
        <lane id=":gneJ5_0_0" index="0" speed="36.00" length="3.00" shape="2349.01,291.98 2352.01,292.00"/>
        <lane id=":gneJ5_0_1" index="1" speed="33.33" length="3.00" shape="2349.01,295.20 2352.01,295.20"/>
        <lane id=":gneJ5_0_2" index="2" speed="33.33" length="3.00" shape="2349.01,298.40 2352.01,298.40"/>
    </edge>
    <edge id=":gneJ50_0" function="internal">
        <lane id=":gneJ50_0_0" index="0" speed="33.33" length="0.10" shape="5701.06,295.20 5701.06,295.20"/>
        <lane id=":gneJ50_0_1" index="1" speed="33.33" length="0.10" shape="5701.06,298.40 5701.06,298.40"/>
    </edge>
    <edge id=":gneJ51_0" function="internal">
        <lane id=":gneJ51_0_0" index="0" speed="33.33" length="0.10" shape="5800.47,295.20 5800.47,295.20"/>
        <lane id=":gneJ51_0_1" index="1" speed="33.33" length="0.10" shape="5800.47,298.40 5800.47,298.40"/>
    </edge>
    <edge id=":gneJ52_0" function="internal">