<?xml version="1.0" encoding="UTF-8"?>

<!-- generated on 02/21/21 22:40:34 by Eclipse SUMO duarouter Version 1.7.0
<configuration xmlns:xsi="http://www.w3.org/2001/XMLSchema-instance" xsi:noNamespaceSchemaLocation="http://sumo.dlr.de/xsd/duarouterConfiguration.xsd">

    <input>
        <net-file value="my_net_15_2_2021.net.xml"/>
        <additional-files value="TAZ_file.taz.xml"/>
        <route-files value="od_file.odtrips.xml"/>
    </input>

    <output>
        <output-file value="od_route_file.odtrips.rou.xml"/>
        <alternatives-output value="od_route_file.odtrips.rou.alt.xml"/>
    </output>

    <random_number>
        <seed value="2017"/>
    </random_number>

</configuration>
-->

<routes xmlns:xsi="http://www.w3.org/2001/XMLSchema-instance" xsi:noNamespaceSchemaLocation="http://sumo.dlr.de/xsd/routes_file.xsd">
    <vType id="Car" probability="0.94" vClass="passenger" carFollowModel="Krauss"/>
    <vehicle id="3982" type="Car" depart="0.34" departLane="free" departSpeed="max" fromTaz="1" toTaz="4">
        <route edges="v1 v2 v3 v4 v5 v6 v7 v8 v9 v10 v11 v12 v13 v14 v15 v16 v17 v18 v19 v20 v21 v22 v23 v24 v25 v26 v27 v28 v29 v30 v31 v32 v33 v34 v35 v36 v37 v38 v39 v40 v41 v42 v43 v44 v45 v46 v47 v48 v49 v50 v51 v52 v53 v54 v55 v56 v57 v58 v59 v60 v61 v62 v63 v64 v65 v66 v67 v68 v69 v70 v71 v72 v73 v74 8to17"/>
    </vehicle>
    <vehicle id="1510" type="Car" depart="0.38" departLane="free" departSpeed="max" fromTaz="1" toTaz="2">
        <route edges="v1 v2 v3 v4 v5 v6 v7 v8 v9 v10 v11 v12 v13 v14 v15 v16 v17 v18 v19 v20 v21 v22 v23 v24 v25 v26 v27 v28 v29 v30 v31 v32 v33 v34 v35 v36 v37 v38 v39 v40 v41 v42 v43 v44 v45 v46 v47 v48 v49 v50 v51 v52 v53 v54 v55 v56 v57 v58 v59 v60 v61 v62 v63 v64 v65 v66 v67 v68 v69 v70 v71 v72 v73 v74 v75 v76 v77 v78 v79 v80 v81 v82 v83 v84 v85 v86 v87 v88 v89 v90 v91 v92 v93 v94 v95 v96 v97 v98 v99 v100 v101 v102 v103 v104 v105 v106 v107 v108 v109 v110 v111 v112 v113 v114 v115 v116 v117 v118 v119 v120 v121 v122 v123 v124 v125 v126 v127 v128 v129 v130 v131 v132 v133 v134 v135 v136 v137 v138 v139 v140 v141 v142 v143 v144 v145 v146 v147 v148 v149 v150 v151 v152 v153 v154 v155 v156 v157 v158 v159 v160"/>
    </vehicle>
    <vehicle id="1322" type="Car" depart="6.22" departLane="free" departSpeed="max" fromTaz="1" toTaz="2">
        <route edges="v1 v2 v3 v4 v5 v6 v7 v8 v9 v10 v11 v12 v13 v14 v15 v16 v17 v18 v19 v20 v21 v22 v23 v24 v25 v26 v27 v28 v29 v30 v31 v32 v33 v34 v35 v36 v37 v38 v39 v40 v41 v42 v43 v44 v45 v46 v47 v48 v49 v50 v51 v52 v53 v54 v55 v56 v57 v58 v59 v60 v61 v62 v63 v64 v65 v66 v67 v68 v69 v70 v71 v72 v73 v74 v75 v76 v77 v78 v79 v80 v81 v82 v83 v84 v85 v86 v87 v88 v89 v90 v91 v92 v93 v94 v95 v96 v97 v98 v99 v100 v101 v102 v103 v104 v105 v106 v107 v108 v109 v110 v111 v112 v113 v114 v115 v116 v117 v118 v119 v120 v121 v122 v123 v124 v125 v126 v127 v128 v129 v130 v131 v132 v133 v134 v135 v136 v137 v138 v139 v140 v141 v142 v143 v144 v145 v146 v147 v148 v149 v150 v151 v152 v153 v154 v155 v156 v157 v158 v159 v160"/>
    </vehicle>
    <vehicle id="923" type="Car" depart="8.04" departLane="free" departSpeed="max" fromTaz="1" toTaz="2">
        <route edges="v1 v2 v3 v4 v5 v6 v7 v8 v9 v10 v11 v12 v13 v14 v15 v16 v17 v18 v19 v20 v21 v22 v23 v24 v25 v26 v27 v28 v29 v30 v31 v32 v33 v34 v35 v36 v37 v38 v39 v40 v41 v42 v43 v44 v45 v46 v47 v48 v49 v50 v51 v52 v53 v54 v55 v56 v57 v58 v59 v60 v61 v62 v63 v64 v65 v66 v67 v68 v69 v70 v71 v72 v73 v74 v75 v76 v77 v78 v79 v80 v81 v82 v83 v84 v85 v86 v87 v88 v89 v90 v91 v92 v93 v94 v95 v96 v97 v98 v99 v100 v101 v102 v103 v104 v105 v106 v107 v108 v109 v110 v111 v112 v113 v114 v115 v116 v117 v118 v119 v120 v121 v122 v123 v124 v125 v126 v127 v128 v129 v130 v131 v132 v133 v134 v135 v136 v137 v138 v139 v140 v141 v142 v143 v144 v145 v146 v147 v148 v149 v150 v151 v152 v153 v154 v155 v156 v157 v158 v159 v160"/>
    </vehicle>
    <vehicle id="3706" type="Car" depart="9.09" departLane="free" departSpeed="max" fromTaz="1" toTaz="2">
        <route edges="v1 v2 v3 v4 v5 v6 v7 v8 v9 v10 v11 v12 v13 v14 v15 v16 v17 v18 v19 v20 v21 v22 v23 v24 v25 v26 v27 v28 v29 v30 v31 v32 v33 v34 v35 v36 v37 v38 v39 v40 v41 v42 v43 v44 v45 v46 v47 v48 v49 v50 v51 v52 v53 v54 v55 v56 v57 v58 v59 v60 v61 v62 v63 v64 v65 v66 v67 v68 v69 v70 v71 v72 v73 v74 v75 v76 v77 v78 v79 v80 v81 v82 v83 v84 v85 v86 v87 v88 v89 v90 v91 v92 v93 v94 v95 v96 v97 v98 v99 v100 v101 v102 v103 v104 v105 v106 v107 v108 v109 v110 v111 v112 v113 v114 v115 v116 v117 v118 v119 v120 v121 v122 v123 v124 v125 v126 v127 v128 v129 v130 v131 v132 v133 v134 v135 v136 v137 v138 v139 v140 v141 v142 v143 v144 v145 v146 v147 v148 v149 v150 v151 v152 v153 v154 v155 v156 v157 v158 v159 v160"/>
    </vehicle>
    <vehicle id="946" type="Car" depart="9.94" departLane="free" departSpeed="max" fromTaz="1" toTaz="2">
        <route edges="v1 v2 v3 v4 v5 v6 v7 v8 v9 v10 v11 v12 v13 v14 v15 v16 v17 v18 v19 v20 v21 v22 v23 v24 v25 v26 v27 v28 v29 v30 v31 v32 v33 v34 v35 v36 v37 v38 v39 v40 v41 v42 v43 v44 v45 v46 v47 v48 v49 v50 v51 v52 v53 v54 v55 v56 v57 v58 v59 v60 v61 v62 v63 v64 v65 v66 v67 v68 v69 v70 v71 v72 v73 v74 v75 v76 v77 v78 v79 v80 v81 v82 v83 v84 v85 v86 v87 v88 v89 v90 v91 v92 v93 v94 v95 v96 v97 v98 v99 v100 v101 v102 v103 v104 v105 v106 v107 v108 v109 v110 v111 v112 v113 v114 v115 v116 v117 v118 v119 v120 v121 v122 v123 v124 v125 v126 v127 v128 v129 v130 v131 v132 v133 v134 v135 v136 v137 v138 v139 v140 v141 v142 v143 v144 v145 v146 v147 v148 v149 v150 v151 v152 v153 v154 v155 v156 v157 v158 v159 v160"/>
    </vehicle>
    <vehicle id="3884" type="Car" depart="10.50" departLane="free" departSpeed="max" fromTaz="1" toTaz="4">
        <route edges="v1 v2 v3 v4 v5 v6 v7 v8 v9 v10 v11 v12 v13 v14 v15 v16 v17 v18 v19 v20 v21 v22 v23 v24 v25 v26 v27 v28 v29 v30 v31 v32 v33 v34 v35 v36 v37 v38 v39 v40 v41 v42 v43 v44 v45 v46 v47 v48 v49 v50 v51 v52 v53 v54 v55 v56 v57 v58 v59 v60 v61 v62 v63 v64 v65 v66 v67 v68 v69 v70 v71 v72 v73 v74 8to17"/>
    </vehicle>
    <vehicle id="883" type="Car" depart="12.64" departLane="free" departSpeed="max" fromTaz="1" toTaz="2">
        <route edges="v1 v2 v3 v4 v5 v6 v7 v8 v9 v10 v11 v12 v13 v14 v15 v16 v17 v18 v19 v20 v21 v22 v23 v24 v25 v26 v27 v28 v29 v30 v31 v32 v33 v34 v35 v36 v37 v38 v39 v40 v41 v42 v43 v44 v45 v46 v47 v48 v49 v50 v51 v52 v53 v54 v55 v56 v57 v58 v59 v60 v61 v62 v63 v64 v65 v66 v67 v68 v69 v70 v71 v72 v73 v74 v75 v76 v77 v78 v79 v80 v81 v82 v83 v84 v85 v86 v87 v88 v89 v90 v91 v92 v93 v94 v95 v96 v97 v98 v99 v100 v101 v102 v103 v104 v105 v106 v107 v108 v109 v110 v111 v112 v113 v114 v115 v116 v117 v118 v119 v120 v121 v122 v123 v124 v125 v126 v127 v128 v129 v130 v131 v132 v133 v134 v135 v136 v137 v138 v139 v140 v141 v142 v143 v144 v145 v146 v147 v148 v149 v150 v151 v152 v153 v154 v155 v156 v157 v158 v159 v160"/>
    </vehicle>
    <vehicle id="894" type="Car" depart="14.05" departLane="free" departSpeed="max" fromTaz="1" toTaz="2">
        <route edges="v1 v2 v3 v4 v5 v6 v7 v8 v9 v10 v11 v12 v13 v14 v15 v16 v17 v18 v19 v20 v21 v22 v23 v24 v25 v26 v27 v28 v29 v30 v31 v32 v33 v34 v35 v36 v37 v38 v39 v40 v41 v42 v43 v44 v45 v46 v47 v48 v49 v50 v51 v52 v53 v54 v55 v56 v57 v58 v59 v60 v61 v62 v63 v64 v65 v66 v67 v68 v69 v70 v71 v72 v73 v74 v75 v76 v77 v78 v79 v80 v81 v82 v83 v84 v85 v86 v87 v88 v89 v90 v91 v92 v93 v94 v95 v96 v97 v98 v99 v100 v101 v102 v103 v104 v105 v106 v107 v108 v109 v110 v111 v112 v113 v114 v115 v116 v117 v118 v119 v120 v121 v122 v123 v124 v125 v126 v127 v128 v129 v130 v131 v132 v133 v134 v135 v136 v137 v138 v139 v140 v141 v142 v143 v144 v145 v146 v147 v148 v149 v150 v151 v152 v153 v154 v155 v156 v157 v158 v159 v160"/>
    </vehicle>
    <vehicle id="2850" type="Car" depart="14.36" departLane="free" departSpeed="max" fromTaz="1" toTaz="2">
        <route edges="v1 v2 v3 v4 v5 v6 v7 v8 v9 v10 v11 v12 v13 v14 v15 v16 v17 v18 v19 v20 v21 v22 v23 v24 v25 v26 v27 v28 v29 v30 v31 v32 v33 v34 v35 v36 v37 v38 v39 v40 v41 v42 v43 v44 v45 v46 v47 v48 v49 v50 v51 v52 v53 v54 v55 v56 v57 v58 v59 v60 v61 v62 v63 v64 v65 v66 v67 v68 v69 v70 v71 v72 v73 v74 v75 v76 v77 v78 v79 v80 v81 v82 v83 v84 v85 v86 v87 v88 v89 v90 v91 v92 v93 v94 v95 v96 v97 v98 v99 v100 v101 v102 v103 v104 v105 v106 v107 v108 v109 v110 v111 v112 v113 v114 v115 v116 v117 v118 v119 v120 v121 v122 v123 v124 v125 v126 v127 v128 v129 v130 v131 v132 v133 v134 v135 v136 v137 v138 v139 v140 v141 v142 v143 v144 v145 v146 v147 v148 v149 v150 v151 v152 v153 v154 v155 v156 v157 v158 v159 v160"/>
    </vehicle>
    <vehicle id="2205" type="Car" depart="14.42" departLane="free" departSpeed="max" fromTaz="1" toTaz="2">
        <route edges="v1 v2 v3 v4 v5 v6 v7 v8 v9 v10 v11 v12 v13 v14 v15 v16 v17 v18 v19 v20 v21 v22 v23 v24 v25 v26 v27 v28 v29 v30 v31 v32 v33 v34 v35 v36 v37 v38 v39 v40 v41 v42 v43 v44 v45 v46 v47 v48 v49 v50 v51 v52 v53 v54 v55 v56 v57 v58 v59 v60 v61 v62 v63 v64 v65 v66 v67 v68 v69 v70 v71 v72 v73 v74 v75 v76 v77 v78 v79 v80 v81 v82 v83 v84 v85 v86 v87 v88 v89 v90 v91 v92 v93 v94 v95 v96 v97 v98 v99 v100 v101 v102 v103 v104 v105 v106 v107 v108 v109 v110 v111 v112 v113 v114 v115 v116 v117 v118 v119 v120 v121 v122 v123 v124 v125 v126 v127 v128 v129 v130 v131 v132 v133 v134 v135 v136 v137 v138 v139 v140 v141 v142 v143 v144 v145 v146 v147 v148 v149 v150 v151 v152 v153 v154 v155 v156 v157 v158 v159 v160"/>
    </vehicle>
    <vehicle id="1263" type="Car" depart="16.47" departLane="free" departSpeed="max" fromTaz="1" toTaz="2">
        <route edges="v1 v2 v3 v4 v5 v6 v7 v8 v9 v10 v11 v12 v13 v14 v15 v16 v17 v18 v19 v20 v21 v22 v23 v24 v25 v26 v27 v28 v29 v30 v31 v32 v33 v34 v35 v36 v37 v38 v39 v40 v41 v42 v43 v44 v45 v46 v47 v48 v49 v50 v51 v52 v53 v54 v55 v56 v57 v58 v59 v60 v61 v62 v63 v64 v65 v66 v67 v68 v69 v70 v71 v72 v73 v74 v75 v76 v77 v78 v79 v80 v81 v82 v83 v84 v85 v86 v87 v88 v89 v90 v91 v92 v93 v94 v95 v96 v97 v98 v99 v100 v101 v102 v103 v104 v105 v106 v107 v108 v109 v110 v111 v112 v113 v114 v115 v116 v117 v118 v119 v120 v121 v122 v123 v124 v125 v126 v127 v128 v129 v130 v131 v132 v133 v134 v135 v136 v137 v138 v139 v140 v141 v142 v143 v144 v145 v146 v147 v148 v149 v150 v151 v152 v153 v154 v155 v156 v157 v158 v159 v160"/>
    </vehicle>
    <vehicle id="3363" type="Car" depart="17.76" departLane="free" departSpeed="max" fromTaz="1" toTaz="2">
        <route edges="v1 v2 v3 v4 v5 v6 v7 v8 v9 v10 v11 v12 v13 v14 v15 v16 v17 v18 v19 v20 v21 v22 v23 v24 v25 v26 v27 v28 v29 v30 v31 v32 v33 v34 v35 v36 v37 v38 v39 v40 v41 v42 v43 v44 v45 v46 v47 v48 v49 v50 v51 v52 v53 v54 v55 v56 v57 v58 v59 v60 v61 v62 v63 v64 v65 v66 v67 v68 v69 v70 v71 v72 v73 v74 v75 v76 v77 v78 v79 v80 v81 v82 v83 v84 v85 v86 v87 v88 v89 v90 v91 v92 v93 v94 v95 v96 v97 v98 v99 v100 v101 v102 v103 v104 v105 v106 v107 v108 v109 v110 v111 v112 v113 v114 v115 v116 v117 v118 v119 v120 v121 v122 v123 v124 v125 v126 v127 v128 v129 v130 v131 v132 v133 v134 v135 v136 v137 v138 v139 v140 v141 v142 v143 v144 v145 v146 v147 v148 v149 v150 v151 v152 v153 v154 v155 v156 v157 v158 v159 v160"/>
    </vehicle>
    <vehicle id="939" type="Car" depart="19.89" departLane="free" departSpeed="max" fromTaz="1" toTaz="2">
        <route edges="v1 v2 v3 v4 v5 v6 v7 v8 v9 v10 v11 v12 v13 v14 v15 v16 v17 v18 v19 v20 v21 v22 v23 v24 v25 v26 v27 v28 v29 v30 v31 v32 v33 v34 v35 v36 v37 v38 v39 v40 v41 v42 v43 v44 v45 v46 v47 v48 v49 v50 v51 v52 v53 v54 v55 v56 v57 v58 v59 v60 v61 v62 v63 v64 v65 v66 v67 v68 v69 v70 v71 v72 v73 v74 v75 v76 v77 v78 v79 v80 v81 v82 v83 v84 v85 v86 v87 v88 v89 v90 v91 v92 v93 v94 v95 v96 v97 v98 v99 v100 v101 v102 v103 v104 v105 v106 v107 v108 v109 v110 v111 v112 v113 v114 v115 v116 v117 v118 v119 v120 v121 v122 v123 v124 v125 v126 v127 v128 v129 v130 v131 v132 v133 v134 v135 v136 v137 v138 v139 v140 v141 v142 v143 v144 v145 v146 v147 v148 v149 v150 v151 v152 v153 v154 v155 v156 v157 v158 v159 v160"/>
    </vehicle>
    <vehicle id="3618" type="Car" depart="19.97" departLane="free" departSpeed="max" fromTaz="1" toTaz="2">
        <route edges="v1 v2 v3 v4 v5 v6 v7 v8 v9 v10 v11 v12 v13 v14 v15 v16 v17 v18 v19 v20 v21 v22 v23 v24 v25 v26 v27 v28 v29 v30 v31 v32 v33 v34 v35 v36 v37 v38 v39 v40 v41 v42 v43 v44 v45 v46 v47 v48 v49 v50 v51 v52 v53 v54 v55 v56 v57 v58 v59 v60 v61 v62 v63 v64 v65 v66 v67 v68 v69 v70 v71 v72 v73 v74 v75 v76 v77 v78 v79 v80 v81 v82 v83 v84 v85 v86 v87 v88 v89 v90 v91 v92 v93 v94 v95 v96 v97 v98 v99 v100 v101 v102 v103 v104 v105 v106 v107 v108 v109 v110 v111 v112 v113 v114 v115 v116 v117 v118 v119 v120 v121 v122 v123 v124 v125 v126 v127 v128 v129 v130 v131 v132 v133 v134 v135 v136 v137 v138 v139 v140 v141 v142 v143 v144 v145 v146 v147 v148 v149 v150 v151 v152 v153 v154 v155 v156 v157 v158 v159 v160"/>
    </vehicle>
    <vehicle id="4221" type="Car" depart="20.21" departLane="free" departSpeed="max" fromTaz="3" toTaz="2">
        <route edges="16to4 v47 v48 v49 v50 v51 v52 v53 v54 v55 v56 v57 v58 v59 v60 v61 v62 v63 v64 v65 v66 v67 v68 v69 v70 v71 v72 v73 v74 v75 v76 v77 v78 v79 v80 v81 v82 v83 v84 v85 v86 v87 v88 v89 v90 v91 v92 v93 v94 v95 v96 v97 v98 v99 v100 v101 v102 v103 v104 v105 v106 v107 v108 v109 v110 v111 v112 v113 v114 v115 v116 v117 v118 v119 v120 v121 v122 v123 v124 v125 v126 v127 v128 v129 v130 v131 v132 v133 v134 v135 v136 v137 v138 v139 v140 v141 v142 v143 v144 v145 v146 v147 v148 v149 v150 v151 v152 v153 v154 v155 v156 v157 v158 v159 v160"/>
    </vehicle>
    <vehicle id="2859" type="Car" depart="20.63" departLane="free" departSpeed="max" fromTaz="1" toTaz="2">
        <route edges="v1 v2 v3 v4 v5 v6 v7 v8 v9 v10 v11 v12 v13 v14 v15 v16 v17 v18 v19 v20 v21 v22 v23 v24 v25 v26 v27 v28 v29 v30 v31 v32 v33 v34 v35 v36 v37 v38 v39 v40 v41 v42 v43 v44 v45 v46 v47 v48 v49 v50 v51 v52 v53 v54 v55 v56 v57 v58 v59 v60 v61 v62 v63 v64 v65 v66 v67 v68 v69 v70 v71 v72 v73 v74 v75 v76 v77 v78 v79 v80 v81 v82 v83 v84 v85 v86 v87 v88 v89 v90 v91 v92 v93 v94 v95 v96 v97 v98 v99 v100 v101 v102 v103 v104 v105 v106 v107 v108 v109 v110 v111 v112 v113 v114 v115 v116 v117 v118 v119 v120 v121 v122 v123 v124 v125 v126 v127 v128 v129 v130 v131 v132 v133 v134 v135 v136 v137 v138 v139 v140 v141 v142 v143 v144 v145 v146 v147 v148 v149 v150 v151 v152 v153 v154 v155 v156 v157 v158 v159 v160"/>
    </vehicle>
    <vType id="Bus" probability="0.03" vClass="bus" carFollowModel="Krauss"/>
    <vehicle id="3837" type="Bus" depart="21.20" departLane="free" departSpeed="max" fromTaz="1" toTaz="2">
        <route edges="v1 v2 v3 v4 v5 v6 v7 v8 v9 v10 v11 v12 v13 v14 v15 v16 v17 v18 v19 v20 v21 v22 v23 v24 v25 v26 v27 v28 v29 v30 v31 v32 v33 v34 v35 v36 v37 v38 v39 v40 v41 v42 v43 v44 v45 v46 v47 v48 v49 v50 v51 v52 v53 v54 v55 v56 v57 v58 v59 v60 v61 v62 v63 v64 v65 v66 v67 v68 v69 v70 v71 v72 v73 v74 v75 v76 v77 v78 v79 v80 v81 v82 v83 v84 v85 v86 v87 v88 v89 v90 v91 v92 v93 v94 v95 v96 v97 v98 v99 v100 v101 v102 v103 v104 v105 v106 v107 v108 v109 v110 v111 v112 v113 v114 v115 v116 v117 v118 v119 v120 v121 v122 v123 v124 v125 v126 v127 v128 v129 v130 v131 v132 v133 v134 v135 v136 v137 v138 v139 v140 v141 v142 v143 v144 v145 v146 v147 v148 v149 v150 v151 v152 v153 v154 v155 v156 v157 v158 v159 v160"/>
    </vehicle>
    <vehicle id="3242" type="Car" depart="22.06" departLane="free" departSpeed="max" fromTaz="1" toTaz="2">
        <route edges="v1 v2 v3 v4 v5 v6 v7 v8 v9 v10 v11 v12 v13 v14 v15 v16 v17 v18 v19 v20 v21 v22 v23 v24 v25 v26 v27 v28 v29 v30 v31 v32 v33 v34 v35 v36 v37 v38 v39 v40 v41 v42 v43 v44 v45 v46 v47 v48 v49 v50 v51 v52 v53 v54 v55 v56 v57 v58 v59 v60 v61 v62 v63 v64 v65 v66 v67 v68 v69 v70 v71 v72 v73 v74 v75 v76 v77 v78 v79 v80 v81 v82 v83 v84 v85 v86 v87 v88 v89 v90 v91 v92 v93 v94 v95 v96 v97 v98 v99 v100 v101 v102 v103 v104 v105 v106 v107 v108 v109 v110 v111 v112 v113 v114 v115 v116 v117 v118 v119 v120 v121 v122 v123 v124 v125 v126 v127 v128 v129 v130 v131 v132 v133 v134 v135 v136 v137 v138 v139 v140 v141 v142 v143 v144 v145 v146 v147 v148 v149 v150 v151 v152 v153 v154 v155 v156 v157 v158 v159 v160"/>
    </vehicle>
    <vehicle id="2263" type="Car" depart="23.07" departLane="free" departSpeed="max" fromTaz="1" toTaz="2">
        <route edges="v1 v2 v3 v4 v5 v6 v7 v8 v9 v10 v11 v12 v13 v14 v15 v16 v17 v18 v19 v20 v21 v22 v23 v24 v25 v26 v27 v28 v29 v30 v31 v32 v33 v34 v35 v36 v37 v38 v39 v40 v41 v42 v43 v44 v45 v46 v47 v48 v49 v50 v51 v52 v53 v54 v55 v56 v57 v58 v59 v60 v61 v62 v63 v64 v65 v66 v67 v68 v69 v70 v71 v72 v73 v74 v75 v76 v77 v78 v79 v80 v81 v82 v83 v84 v85 v86 v87 v88 v89 v90 v91 v92 v93 v94 v95 v96 v97 v98 v99 v100 v101 v102 v103 v104 v105 v106 v107 v108 v109 v110 v111 v112 v113 v114 v115 v116 v117 v118 v119 v120 v121 v122 v123 v124 v125 v126 v127 v128 v129 v130 v131 v132 v133 v134 v135 v136 v137 v138 v139 v140 v141 v142 v143 v144 v145 v146 v147 v148 v149 v150 v151 v152 v153 v154 v155 v156 v157 v158 v159 v160"/>
    </vehicle>
    <vehicle id="2662" type="Car" depart="23.43" departLane="free" departSpeed="max" fromTaz="1" toTaz="2">
        <route edges="v1 v2 v3 v4 v5 v6 v7 v8 v9 v10 v11 v12 v13 v14 v15 v16 v17 v18 v19 v20 v21 v22 v23 v24 v25 v26 v27 v28 v29 v30 v31 v32 v33 v34 v35 v36 v37 v38 v39 v40 v41 v42 v43 v44 v45 v46 v47 v48 v49 v50 v51 v52 v53 v54 v55 v56 v57 v58 v59 v60 v61 v62 v63 v64 v65 v66 v67 v68 v69 v70 v71 v72 v73 v74 v75 v76 v77 v78 v79 v80 v81 v82 v83 v84 v85 v86 v87 v88 v89 v90 v91 v92 v93 v94 v95 v96 v97 v98 v99 v100 v101 v102 v103 v104 v105 v106 v107 v108 v109 v110 v111 v112 v113 v114 v115 v116 v117 v118 v119 v120 v121 v122 v123 v124 v125 v126 v127 v128 v129 v130 v131 v132 v133 v134 v135 v136 v137 v138 v139 v140 v141 v142 v143 v144 v145 v146 v147 v148 v149 v150 v151 v152 v153 v154 v155 v156 v157 v158 v159 v160"/>
    </vehicle>
    <vType id="Track" probability="0.03" vClass="truck" carFollowModel="Krauss"/>
    <vehicle id="3419" type="Track" depart="24.10" departLane="free" departSpeed="max" fromTaz="1" toTaz="2">
        <route edges="v1 v2 v3 v4 v5 v6 v7 v8 v9 v10 v11 v12 v13 v14 v15 v16 v17 v18 v19 v20 v21 v22 v23 v24 v25 v26 v27 v28 v29 v30 v31 v32 v33 v34 v35 v36 v37 v38 v39 v40 v41 v42 v43 v44 v45 v46 v47 v48 v49 v50 v51 v52 v53 v54 v55 v56 v57 v58 v59 v60 v61 v62 v63 v64 v65 v66 v67 v68 v69 v70 v71 v72 v73 v74 v75 v76 v77 v78 v79 v80 v81 v82 v83 v84 v85 v86 v87 v88 v89 v90 v91 v92 v93 v94 v95 v96 v97 v98 v99 v100 v101 v102 v103 v104 v105 v106 v107 v108 v109 v110 v111 v112 v113 v114 v115 v116 v117 v118 v119 v120 v121 v122 v123 v124 v125 v126 v127 v128 v129 v130 v131 v132 v133 v134 v135 v136 v137 v138 v139 v140 v141 v142 v143 v144 v145 v146 v147 v148 v149 v150 v151 v152 v153 v154 v155 v156 v157 v158 v159 v160"/>
    </vehicle>
    <vehicle id="3028" type="Car" depart="24.55" departLane="free" departSpeed="max" fromTaz="1" toTaz="2">
        <route edges="v1 v2 v3 v4 v5 v6 v7 v8 v9 v10 v11 v12 v13 v14 v15 v16 v17 v18 v19 v20 v21 v22 v23 v24 v25 v26 v27 v28 v29 v30 v31 v32 v33 v34 v35 v36 v37 v38 v39 v40 v41 v42 v43 v44 v45 v46 v47 v48 v49 v50 v51 v52 v53 v54 v55 v56 v57 v58 v59 v60 v61 v62 v63 v64 v65 v66 v67 v68 v69 v70 v71 v72 v73 v74 v75 v76 v77 v78 v79 v80 v81 v82 v83 v84 v85 v86 v87 v88 v89 v90 v91 v92 v93 v94 v95 v96 v97 v98 v99 v100 v101 v102 v103 v104 v105 v106 v107 v108 v109 v110 v111 v112 v113 v114 v115 v116 v117 v118 v119 v120 v121 v122 v123 v124 v125 v126 v127 v128 v129 v130 v131 v132 v133 v134 v135 v136 v137 v138 v139 v140 v141 v142 v143 v144 v145 v146 v147 v148 v149 v150 v151 v152 v153 v154 v155 v156 v157 v158 v159 v160"/>
    </vehicle>
    <vehicle id="2553" type="Car" depart="28.36" departLane="free" departSpeed="max" fromTaz="1" toTaz="2">
        <route edges="v1 v2 v3 v4 v5 v6 v7 v8 v9 v10 v11 v12 v13 v14 v15 v16 v17 v18 v19 v20 v21 v22 v23 v24 v25 v26 v27 v28 v29 v30 v31 v32 v33 v34 v35 v36 v37 v38 v39 v40 v41 v42 v43 v44 v45 v46 v47 v48 v49 v50 v51 v52 v53 v54 v55 v56 v57 v58 v59 v60 v61 v62 v63 v64 v65 v66 v67 v68 v69 v70 v71 v72 v73 v74 v75 v76 v77 v78 v79 v80 v81 v82 v83 v84 v85 v86 v87 v88 v89 v90 v91 v92 v93 v94 v95 v96 v97 v98 v99 v100 v101 v102 v103 v104 v105 v106 v107 v108 v109 v110 v111 v112 v113 v114 v115 v116 v117 v118 v119 v120 v121 v122 v123 v124 v125 v126 v127 v128 v129 v130 v131 v132 v133 v134 v135 v136 v137 v138 v139 v140 v141 v142 v143 v144 v145 v146 v147 v148 v149 v150 v151 v152 v153 v154 v155 v156 v157 v158 v159 v160"/>
    </vehicle>
    <vehicle id="756" type="Car" depart="29.29" departLane="free" departSpeed="max" fromTaz="1" toTaz="2">
        <route edges="v1 v2 v3 v4 v5 v6 v7 v8 v9 v10 v11 v12 v13 v14 v15 v16 v17 v18 v19 v20 v21 v22 v23 v24 v25 v26 v27 v28 v29 v30 v31 v32 v33 v34 v35 v36 v37 v38 v39 v40 v41 v42 v43 v44 v45 v46 v47 v48 v49 v50 v51 v52 v53 v54 v55 v56 v57 v58 v59 v60 v61 v62 v63 v64 v65 v66 v67 v68 v69 v70 v71 v72 v73 v74 v75 v76 v77 v78 v79 v80 v81 v82 v83 v84 v85 v86 v87 v88 v89 v90 v91 v92 v93 v94 v95 v96 v97 v98 v99 v100 v101 v102 v103 v104 v105 v106 v107 v108 v109 v110 v111 v112 v113 v114 v115 v116 v117 v118 v119 v120 v121 v122 v123 v124 v125 v126 v127 v128 v129 v130 v131 v132 v133 v134 v135 v136 v137 v138 v139 v140 v141 v142 v143 v144 v145 v146 v147 v148 v149 v150 v151 v152 v153 v154 v155 v156 v157 v158 v159 v160"/>
    </vehicle>
    <vehicle id="3574" type="Car" depart="29.68" departLane="free" departSpeed="max" fromTaz="1" toTaz="2">
        <route edges="v1 v2 v3 v4 v5 v6 v7 v8 v9 v10 v11 v12 v13 v14 v15 v16 v17 v18 v19 v20 v21 v22 v23 v24 v25 v26 v27 v28 v29 v30 v31 v32 v33 v34 v35 v36 v37 v38 v39 v40 v41 v42 v43 v44 v45 v46 v47 v48 v49 v50 v51 v52 v53 v54 v55 v56 v57 v58 v59 v60 v61 v62 v63 v64 v65 v66 v67 v68 v69 v70 v71 v72 v73 v74 v75 v76 v77 v78 v79 v80 v81 v82 v83 v84 v85 v86 v87 v88 v89 v90 v91 v92 v93 v94 v95 v96 v97 v98 v99 v100 v101 v102 v103 v104 v105 v106 v107 v108 v109 v110 v111 v112 v113 v114 v115 v116 v117 v118 v119 v120 v121 v122 v123 v124 v125 v126 v127 v128 v129 v130 v131 v132 v133 v134 v135 v136 v137 v138 v139 v140 v141 v142 v143 v144 v145 v146 v147 v148 v149 v150 v151 v152 v153 v154 v155 v156 v157 v158 v159 v160"/>
    </vehicle>
    <vehicle id="300" type="Car" depart="30.37" departLane="free" departSpeed="max" fromTaz="1" toTaz="2">
        <route edges="v1 v2 v3 v4 v5 v6 v7 v8 v9 v10 v11 v12 v13 v14 v15 v16 v17 v18 v19 v20 v21 v22 v23 v24 v25 v26 v27 v28 v29 v30 v31 v32 v33 v34 v35 v36 v37 v38 v39 v40 v41 v42 v43 v44 v45 v46 v47 v48 v49 v50 v51 v52 v53 v54 v55 v56 v57 v58 v59 v60 v61 v62 v63 v64 v65 v66 v67 v68 v69 v70 v71 v72 v73 v74 v75 v76 v77 v78 v79 v80 v81 v82 v83 v84 v85 v86 v87 v88 v89 v90 v91 v92 v93 v94 v95 v96 v97 v98 v99 v100 v101 v102 v103 v104 v105 v106 v107 v108 v109 v110 v111 v112 v113 v114 v115 v116 v117 v118 v119 v120 v121 v122 v123 v124 v125 v126 v127 v128 v129 v130 v131 v132 v133 v134 v135 v136 v137 v138 v139 v140 v141 v142 v143 v144 v145 v146 v147 v148 v149 v150 v151 v152 v153 v154 v155 v156 v157 v158 v159 v160"/>
    </vehicle>
    <vehicle id="4670" type="Car" depart="30.52" departLane="free" departSpeed="max" fromTaz="5" toTaz="2">
        <route edges="18to11 v107 v108 v109 v110 v111 v112 v113 v114 v115 v116 v117 v118 v119 v120 v121 v122 v123 v124 v125 v126 v127 v128 v129 v130 v131 v132 v133 v134 v135 v136 v137 v138 v139 v140 v141 v142 v143 v144 v145 v146 v147 v148 v149 v150 v151 v152 v153 v154 v155 v156 v157 v158 v159 v160"/>
    </vehicle>
    <vehicle id="3960" type="Car" depart="30.70" departLane="free" departSpeed="max" fromTaz="1" toTaz="4">
        <route edges="v1 v2 v3 v4 v5 v6 v7 v8 v9 v10 v11 v12 v13 v14 v15 v16 v17 v18 v19 v20 v21 v22 v23 v24 v25 v26 v27 v28 v29 v30 v31 v32 v33 v34 v35 v36 v37 v38 v39 v40 v41 v42 v43 v44 v45 v46 v47 v48 v49 v50 v51 v52 v53 v54 v55 v56 v57 v58 v59 v60 v61 v62 v63 v64 v65 v66 v67 v68 v69 v70 v71 v72 v73 v74 8to17"/>
    </vehicle>
    <vehicle id="1420" type="Car" depart="30.90" departLane="free" departSpeed="max" fromTaz="1" toTaz="2">
        <route edges="v1 v2 v3 v4 v5 v6 v7 v8 v9 v10 v11 v12 v13 v14 v15 v16 v17 v18 v19 v20 v21 v22 v23 v24 v25 v26 v27 v28 v29 v30 v31 v32 v33 v34 v35 v36 v37 v38 v39 v40 v41 v42 v43 v44 v45 v46 v47 v48 v49 v50 v51 v52 v53 v54 v55 v56 v57 v58 v59 v60 v61 v62 v63 v64 v65 v66 v67 v68 v69 v70 v71 v72 v73 v74 v75 v76 v77 v78 v79 v80 v81 v82 v83 v84 v85 v86 v87 v88 v89 v90 v91 v92 v93 v94 v95 v96 v97 v98 v99 v100 v101 v102 v103 v104 v105 v106 v107 v108 v109 v110 v111 v112 v113 v114 v115 v116 v117 v118 v119 v120 v121 v122 v123 v124 v125 v126 v127 v128 v129 v130 v131 v132 v133 v134 v135 v136 v137 v138 v139 v140 v141 v142 v143 v144 v145 v146 v147 v148 v149 v150 v151 v152 v153 v154 v155 v156 v157 v158 v159 v160"/>
    </vehicle>
    <vehicle id="4701" type="Car" depart="30.97" departLane="free" departSpeed="max" fromTaz="5" toTaz="2">
        <route edges="18to11 v107 v108 v109 v110 v111 v112 v113 v114 v115 v116 v117 v118 v119 v120 v121 v122 v123 v124 v125 v126 v127 v128 v129 v130 v131 v132 v133 v134 v135 v136 v137 v138 v139 v140 v141 v142 v143 v144 v145 v146 v147 v148 v149 v150 v151 v152 v153 v154 v155 v156 v157 v158 v159 v160"/>
    </vehicle>
    <vehicle id="2164" type="Car" depart="33.74" departLane="free" departSpeed="max" fromTaz="1" toTaz="2">
        <route edges="v1 v2 v3 v4 v5 v6 v7 v8 v9 v10 v11 v12 v13 v14 v15 v16 v17 v18 v19 v20 v21 v22 v23 v24 v25 v26 v27 v28 v29 v30 v31 v32 v33 v34 v35 v36 v37 v38 v39 v40 v41 v42 v43 v44 v45 v46 v47 v48 v49 v50 v51 v52 v53 v54 v55 v56 v57 v58 v59 v60 v61 v62 v63 v64 v65 v66 v67 v68 v69 v70 v71 v72 v73 v74 v75 v76 v77 v78 v79 v80 v81 v82 v83 v84 v85 v86 v87 v88 v89 v90 v91 v92 v93 v94 v95 v96 v97 v98 v99 v100 v101 v102 v103 v104 v105 v106 v107 v108 v109 v110 v111 v112 v113 v114 v115 v116 v117 v118 v119 v120 v121 v122 v123 v124 v125 v126 v127 v128 v129 v130 v131 v132 v133 v134 v135 v136 v137 v138 v139 v140 v141 v142 v143 v144 v145 v146 v147 v148 v149 v150 v151 v152 v153 v154 v155 v156 v157 v158 v159 v160"/>
    </vehicle>
    <vehicle id="4757" type="Bus" depart="33.87" departLane="free" departSpeed="max" fromTaz="5" toTaz="2">
        <route edges="18to11 v107 v108 v109 v110 v111 v112 v113 v114 v115 v116 v117 v118 v119 v120 v121 v122 v123 v124 v125 v126 v127 v128 v129 v130 v131 v132 v133 v134 v135 v136 v137 v138 v139 v140 v141 v142 v143 v144 v145 v146 v147 v148 v149 v150 v151 v152 v153 v154 v155 v156 v157 v158 v159 v160"/>
    </vehicle>
    <vehicle id="1267" type="Car" depart="34.82" departLane="free" departSpeed="max" fromTaz="1" toTaz="2">
        <route edges="v1 v2 v3 v4 v5 v6 v7 v8 v9 v10 v11 v12 v13 v14 v15 v16 v17 v18 v19 v20 v21 v22 v23 v24 v25 v26 v27 v28 v29 v30 v31 v32 v33 v34 v35 v36 v37 v38 v39 v40 v41 v42 v43 v44 v45 v46 v47 v48 v49 v50 v51 v52 v53 v54 v55 v56 v57 v58 v59 v60 v61 v62 v63 v64 v65 v66 v67 v68 v69 v70 v71 v72 v73 v74 v75 v76 v77 v78 v79 v80 v81 v82 v83 v84 v85 v86 v87 v88 v89 v90 v91 v92 v93 v94 v95 v96 v97 v98 v99 v100 v101 v102 v103 v104 v105 v106 v107 v108 v109 v110 v111 v112 v113 v114 v115 v116 v117 v118 v119 v120 v121 v122 v123 v124 v125 v126 v127 v128 v129 v130 v131 v132 v133 v134 v135 v136 v137 v138 v139 v140 v141 v142 v143 v144 v145 v146 v147 v148 v149 v150 v151 v152 v153 v154 v155 v156 v157 v158 v159 v160"/>
    </vehicle>
    <vehicle id="1752" type="Car" depart="35.22" departLane="free" departSpeed="max" fromTaz="1" toTaz="2">
        <route edges="v1 v2 v3 v4 v5 v6 v7 v8 v9 v10 v11 v12 v13 v14 v15 v16 v17 v18 v19 v20 v21 v22 v23 v24 v25 v26 v27 v28 v29 v30 v31 v32 v33 v34 v35 v36 v37 v38 v39 v40 v41 v42 v43 v44 v45 v46 v47 v48 v49 v50 v51 v52 v53 v54 v55 v56 v57 v58 v59 v60 v61 v62 v63 v64 v65 v66 v67 v68 v69 v70 v71 v72 v73 v74 v75 v76 v77 v78 v79 v80 v81 v82 v83 v84 v85 v86 v87 v88 v89 v90 v91 v92 v93 v94 v95 v96 v97 v98 v99 v100 v101 v102 v103 v104 v105 v106 v107 v108 v109 v110 v111 v112 v113 v114 v115 v116 v117 v118 v119 v120 v121 v122 v123 v124 v125 v126 v127 v128 v129 v130 v131 v132 v133 v134 v135 v136 v137 v138 v139 v140 v141 v142 v143 v144 v145 v146 v147 v148 v149 v150 v151 v152 v153 v154 v155 v156 v157 v158 v159 v160"/>
    </vehicle>
    <vehicle id="168" type="Car" depart="35.54" departLane="free" departSpeed="max" fromTaz="1" toTaz="2">
        <route edges="v1 v2 v3 v4 v5 v6 v7 v8 v9 v10 v11 v12 v13 v14 v15 v16 v17 v18 v19 v20 v21 v22 v23 v24 v25 v26 v27 v28 v29 v30 v31 v32 v33 v34 v35 v36 v37 v38 v39 v40 v41 v42 v43 v44 v45 v46 v47 v48 v49 v50 v51 v52 v53 v54 v55 v56 v57 v58 v59 v60 v61 v62 v63 v64 v65 v66 v67 v68 v69 v70 v71 v72 v73 v74 v75 v76 v77 v78 v79 v80 v81 v82 v83 v84 v85 v86 v87 v88 v89 v90 v91 v92 v93 v94 v95 v96 v97 v98 v99 v100 v101 v102 v103 v104 v105 v106 v107 v108 v109 v110 v111 v112 v113 v114 v115 v116 v117 v118 v119 v120 v121 v122 v123 v124 v125 v126 v127 v128 v129 v130 v131 v132 v133 v134 v135 v136 v137 v138 v139 v140 v141 v142 v143 v144 v145 v146 v147 v148 v149 v150 v151 v152 v153 v154 v155 v156 v157 v158 v159 v160"/>
    </vehicle>
    <vehicle id="3524" type="Car" depart="35.88" departLane="free" departSpeed="max" fromTaz="1" toTaz="2">
        <route edges="v1 v2 v3 v4 v5 v6 v7 v8 v9 v10 v11 v12 v13 v14 v15 v16 v17 v18 v19 v20 v21 v22 v23 v24 v25 v26 v27 v28 v29 v30 v31 v32 v33 v34 v35 v36 v37 v38 v39 v40 v41 v42 v43 v44 v45 v46 v47 v48 v49 v50 v51 v52 v53 v54 v55 v56 v57 v58 v59 v60 v61 v62 v63 v64 v65 v66 v67 v68 v69 v70 v71 v72 v73 v74 v75 v76 v77 v78 v79 v80 v81 v82 v83 v84 v85 v86 v87 v88 v89 v90 v91 v92 v93 v94 v95 v96 v97 v98 v99 v100 v101 v102 v103 v104 v105 v106 v107 v108 v109 v110 v111 v112 v113 v114 v115 v116 v117 v118 v119 v120 v121 v122 v123 v124 v125 v126 v127 v128 v129 v130 v131 v132 v133 v134 v135 v136 v137 v138 v139 v140 v141 v142 v143 v144 v145 v146 v147 v148 v149 v150 v151 v152 v153 v154 v155 v156 v157 v158 v159 v160"/>
    </vehicle>
    <vehicle id="116" type="Car" depart="37.36" departLane="free" departSpeed="max" fromTaz="1" toTaz="2">